ROMS/TOMS Framework: August 1, 2017
===================

Copyright (c) 2002-2017 The ROMS/TOMS Group
  Licensed under a MIT/X style license
  See License_ROMS.txt

svn: $HeadURL: https://www.myroms.org/svn/src/trunk/ROMS/Version $
svn: $LastChangedBy: arango $
svn: $LastChangedRevision: 859 $
svn: $LastChangedDate: 2017-08-02 01:45:30 +0000 (Wed, 02 Aug 2017) $